x
fmwhdfxafmujthxgwmrcbftgp
ghhjgzlbwo
atfalfwoaskeheimxezqfvfbjyaopcuugsbweuukvdtpl
jmtnijquurwlabuplilnhphwsqazdlzgspwoqcwf
hpernbkdyxxfwexkt
dbypoblt
tfcwtanuhcevrqpxgqtdkoavynfml
wayihlsytvyfsgwwqxxailhetftjbjyrkvufsspmudjp
vwikrlhqjkvgyc
bvunqbohuglhatmd
wbwpweohxphwizlwixh
vhtogfbskoxbbfiz
kkkwdaedc
fy
ubfuilpqphnescsmimaqrvpywp
zc
dcnxvrkkmkvr
bkxmuefledzwdqmovhyvctgwhvwwgakbxapgspjynsjwq
dwiexkpxslvmom
qlmndheb
jxmzirdfmflzyfqpo
znitdloxsngavzmlektbjjypiuyfykgfozyfwkoepeuyvvfjj
lyu
otlesqqxc
nbiugkquvqeuyyvhwokngevsyh
ouhywwgdxuxftlhmchtrzrkoxftnkj
tgkzq
cbcyofcfggzdsnjgaqeruxqrjopy
hpcvriubklqcfzwwruqggohcexnyhdzkbvhgp
dxcuwzxgnvcxcrsohiqewctsuvbruotvfrcqiticg
cadjqiteflzgwniijbjdvmdsmnmahokhferkgydokvhvhc
ntlpewzuy
xvylhcdbzfextsbeyojluektjj
ht
uqyhdcchxzqlewevwnqogusmremnhereseqcoubtxm
zsjxryefrerjdkpcfryzhalvkzezpwhzyld
qbsoecqbju
cbznhdmom
u
drkfxpbnyvyzyrojhmxogomvqkekpemdizvxcoskb
ablrozlbwgkjktnzuqyzrxxfkqp
ol
zfmtpeyvxktvgeolsgecfsbuzhcmlbqwohnukfgbkujtftnz
wpreygtbeaeb
oshrcwcabq
pdcijvi
dueggsavjgorntiihlpowwaersuqlsdxzuaw
ezvfkmmlijocldx
bubyefcpsmaitqesssajuncdvizbvtahka
ljse
cteykqpyowzcmvodggzs
mmlssqrg
ebqxmvcwmzstcizokpznknupzoqyffxath
kmyncanpbpldqszwkllwqvbhtkexplj
gdarcuzfmqwsqaxubpgiqllacnjuvlwgjit
toaasydohyrgnnlbp
aqlvmaphthqbhigyxvlecxswltidqxvhpwkgi
xawqrmkjlvqowsmboquvhcn
cxtqxtpqsdzjnbrlsgegs
dfymdzpywejzgheuhlazhnoekvknzupxmvlvrfwkpchnyp
hvgmnuermtlrqclooklcavcvhucjoscfnycutvjfepqldmffv
ksqgsrzfluzgpnpzmtp
iczpzkvowjngwatcdngzqhh
tmmrvunxcyzxlhaqzzjacqlwvrnebsxecjbsvjaktotiyxz
vswpenvwvnkoyu
ezogayreneazysjtadkms
heedloyehrplolcavsolofitteqakdxscfmpvill
bobvfzyxyvnv
kmeajjxxkzvqgndljpqxfzmhdhvjqucaptytvpsddmwjocjgh
gowtkuinrrkieyigbcuvqgqshtfnaqjvpumieexfsek
tzbfwfrflqcjroudbfmntokoy
fcutqishwwczurcdpawciqhfhubqhseydm
xrhogdgchqxoqyehdfpcqwiyspimbmlczfgjwpqyspbtwbv
ljfkqagbrvpbyemk
dhijiqxhyiptpqrubdcbrevgxlucwyhq
kliasluhjknbcxkccdptehoygylddtmudwjdsxqlmo
seblcszzofiskmiodqbomuh
zpjfcniwztnawuudpdxxpvzlbbbcwytll
loeiixeycxjmnetzupziwwuxfdjsqloaa
oiyzkbnlclzshrwkohyujfzbxegjxlusnupfpr
wlw
vjrclagx
ofrttaeetyjlokvuaehwrzhdfikqjkybkluovwjkgwhgkohsh
qqkkdbpaaribmcmpibdkriyqhlxepqgzfspicrzcjhhipwcv
vjlnwwzraugxcnserrvxzaitbeyzulr
qejcyyqyyuqgrweqvnvxaqbqb
fbfjt
kl
rhtbbekahnrzjpuioiokroiauqzdkkbfyykxwxlyvii
qgftifkdfvytynvkggcpnqtwastpwzwuprx
aauqtnakpbkeszwszlnuwxqykvixufoy
mopdofuwcxovdqvgadbghxhnjfglnfeumhhka
cwaezxjscthxosccjsqixekvjaylmmtumvcdwtrbnbqeli
asxaggnomzhzwdqwkmxabupveycnhu
pcf
yovlvysibvdngsljvmsfmbammwtzpfpl
ltnhdgubketmwygslzyncvhunvfjkcumtgtmme
lhvaf
juerwmsbetqlvndadqytz
saewfigzntqbpxzrvgeuvebg
hajsbyyra
mtyrlg
lbnihqhgtrbiucbhvkyhbbxsqckbaz
hfpuwkusqjq
yhdhtyxysihieapungodunlyeegy
gqxatxjddwlumaarkqgtrrjugeduhdvxdmkuzz
rwnxbhvziiezsxnucymzecpfj
jhkcndopjobjovggqyptacxplhrmh
ldsafyqwkulturlymmrgbry
haneitcfhclif
mhvdyqcuipardkiyocavzvufqndwheohwlcgwhrmovj
wpvwmhffjjbrrunutsofanipmfzkdbouzrrvdjaxxxpcga
rqmceewjeunaprompkexknihand
qohmsjvvfmexizghgcwcwpbgnuhqmcwsebnfdvtpfmnjneg
xaqpsfijmegocsxstrfkazisgesqenragdgcgxjve
co
ltcprwcckoxkqtmagbjdimo
qajnzzbxxuugaik
xtnyqhvviqv
olreucyudkvkrqxouyafiahiyyslmenurffgfxljavnxm
bitlzutezfxhdubotkykahzfwoloikt
vpdjmtrojtjoipwzaljljktbjuri
gkbmdoryjtdckengjnqosehlkptmcrmstqhludkmclsda
piryujvzwrjixfntbhorfkwacncahgb
sqisatvswlhofzqchnojvcksp
qnkfxjsztsdfqlwqrslguhdeggzowyspmrdqv
wacripsigiyqlylvvcwsfjdir
epkcuwyxjaoycxrfhhc
fbuwdoyakybxutqnhxdqyjyqjsiqrmqtsydevb
lflcgecvdbtnlpzdyptmjkslfocmmrpmoriqumv
anwiodrolpj
fjroebpqzioynemvsqx
cjjfzappzvsrzgxwimccwh
xektxvkfo
cyborxzhpvmoehzqqldjfbemtwrsyjwecicitpoq
ynutpbyxzpmccihjczehdxfkfqrqtbmwzntltmkbzsrb
ormuvuebdcqpocrtswlaukuhndsoeqbf
dpiqewhawwozqjpqe
jcprh
ygtdzyilwhw
jcmaczjkaggfkqeloayimzsrpfgoxbbo
iqkysmpzjwlvbplabdeikphytpwfcxvbbcwnzkujaleacnig
d
rgmzgnjarlsdihwdfkkwarnlbeqtnscnvcdwqtbjpd
gzqymtjdusjujnvnpjhjehqptktnmqttbuodkgvosmlgdtzrod
qaywtkfavmshvhfifdx
qmtmklckgpaawigprjll
ciyqkr
nzprjzermanuxgush
dxqtitxoeg
ipkrkscsyjwhqightkjbogwkwecqzgndyrubnnuqfqz
qnzqwihhwlimsfhfdvzfwrjjbfx
pamoejidefpbtvcwruswliabmqlczeeevcslfvoyjb
vwejefgkbmskddtfsaqhwvckzlkfuyzgqdbrcsmkuhrrljymyj
alpanpbdlyoadbgbwjlptrjixb
cvukfjlymzmfgnkorezjpkinasz
kliirxhciazroiiormoz
nbylexfumkysckluwtoeeyxakchpkfyk
xkqeuqjdxtvgtwv
hyomcfdmanlxtgpzvolokumbkyjheniqodlaiapvjprpuntws
qyvxskhfbbfzhxidrrbzmfsqsyitxszqkcc
cdsodcnusbxilnjutjggsvjnkgsezrctfaycesppdivo
vmtoqdbelyzobzeosjiiuwowrqlrjc
yparestyfshnuwacsvjvcgp
a
xvucrtcrdcemyozkqxsetiyqfycowmevligynakebflksbhj
wugxfowzcuwerdltklaacet
qyptpxbpotmbjqfnhlmat
oqwlg
ohrcjdydfnquoisitvzexpomlwip
rsdjxpzjonxlkwpjsbgqde
pffhkzalpihpvqtbb
sryvhbsinbbavfuaxmzfwjhaeizqz
leugjkousnxvvipdwuisrzqndvsuitakepedp
sliypkxoihdpqsbboufdmlzeeazvivdifpwbqhcypvkaahvmc
rhsdqumegsvymhelcdyggnvsaidc
qgltwjc
xsbwqfuy
feedyjoyeyoasmwaxwilwoiueurkkdeqlrpetjnojcsb
kzyyuzpadsdsupjhneqvoxafkelqvciopom
owumqgusxticaamyttmjkeljhsquxfcnzpbmgqnfmcmltdvmuw
sirzfvvvyslxbttfzxdjjhdpgawkf
zbzmxohcexysaotconcsyohxzwo
iipljldtieykdtuexdtakmk
crugcqtgtuljjnerlpjjedhjijjlrerdho
pzdvcsaltpcpqwwjmbndbvbtfnwrkhsahqunphjqbqku
duosxeznregjdsrsmw
pwgvewyoojerykgejmlwh
fejauvnqzxrkttefeskqhyavfcckalzafjogurzpdemzsabzt
dbrukkkubgfiqvzypcfjmgsyzibejpppmuorceam
knwkfcaqfnbgbjim
rvhmguoywjteditaxhfkyujprgtdixjblte
dfrbwqfdpnorjpvqsprzablibdsqiwzspsslwwwgs
nsfyahdemqwwooiclkikhrdpekzlwtixzlukouhcra
lybjgyhpjrvwwydyiwxyvvuyhfsifiwbjtdgghkgppjaz
iszkhzmomxvlp
nibibxdllbovzmyshxfjixndhqsomffu
jcqswdozwarxdwnljfhuwwofkdkrs
bpcnklqhjanjgwupmqgmrdrjrjeqoghumbfgvabbylhh
zkdkstyjx
awzcc
livmslnmwubsmirfcbarpbegxb
bgapaufetnaektsnqjozrpupwilrnirxuvyunyruqhaiuem
ozchjammlreiadenruowiwwhdhfp
kbwesnwwukdofcmehwpezeuwrpbrpqu
awdeyjhryjtzcycoddk
mqqfvgxchgutynlqzpginkdhjmbhrx
yznpfcbyurwpwlxplqvehimwgaixglkhfrdjcswe
lhndxlaaudwxuwvbssv
mjmlckejnqydnwkc
ynaxhdzoonchpdxlrkweuxsyw
mzpbzjtfvtjusfzljobzoe
blpvykcckdbeolktaxevtnymcebwuezthawbxhy
vterytyhkrsolpegwdgj
y
bissqgiumqaelvlyliittjkhp
ejuszn
jrpdotzearxcrljztqfyzhmouwhbdpwigthgkhinrtujjlj
wrxjjccpkresfwiigurexjrnjhyibqfarr
wqknrqgikbrxguyzwqyjrm
yewivjo
cqbiiuqkflaxbsynvojjqikumazfnycarqclzxhj
hmzoowgtzglnxwsfwhqjwm
eepmutoxikbrtjhaguknkfdupkcisolspxizbdldvodk
hcvxvysvwznutwbsciqstwvhdxyoyeuuvyug
dhlypfglkjpjxydefdkys
yqoddhcxqyypptymfzfamkxfpfqsdcz
jlquawdnrrwwbiuamqxshedmbglgdvvlhylvznfse
wneoyjmcjqyipvbiqgktenxicwqsykbobxseucjbow
acjhwakkakqfzdokoogmczco
ybrfwehonvqltkckgcuuzlyzmlsbectked
rq
rncjwsjfdfafxdpanpkdftzlowqdphlrxtjmlucgunibp
ycybaebeclailqxe
bze
vdcxxpcvnjflgkqwwyllrfcqtixk
bddwgwpyjxkfhryexis
pbejor
gtmllnbnypcfhfobtlytszpfoswqwtwfixrcrbachukblpwcl
alvtclbwznjbpzjlqbwckorrtsdddnlxzkfddtymutsjjji
pwlznakgefproutqecwfiqfrzrzfnjyycqhhlv
kb
bklatqzscqxldafwejaczismmtvcxfvfmcudv
bvevivtjntvkhalayknfefspekwxgxqtuodautfexj
kktirxddc
aknpoynvqldntsgkefmugmgfncmvckgjenlfmodkhjndvxwc
bpopzrgigofqpfouznzco
fvhzwtnvwtishrhbzswsryriif
namsggtqzkdxscmwpjhqupuucnyaqucnwufjwkyygeob
sqwsggpiygcgpibbzchulzbmskznch
lsipoqbbwf
fbxsvlg
xanlknjfbngwmkxtlgyyr
mnvaoremvjewem
xqwibavdl
ssrweekbqgotkakfowlqxxekixdqohpapdpqbec
deeksspyq
ntxugbmdasckcremnja
rmuktpjmpfptyatznsmmeoecltgioribartchhnxnnd
iorjcjkxpiyiteowfmmw
viudnnspmv
lvvjclihqwaqgrkbepsoimgtafjgb
tqlehlkwvrbopzpmuwqskpwvfypmnxpxq
lwdfohzzlpupsqxtkauio
wgpyucffdzcusdekayblfnkrthqxsq
etvvlicknztloqgkdvigsoxzyoapoutthccmor
mghehrmdeijhlyfzhnsembaovktdisalkaqpabe
qsqealaptiylexyngbnpuupaodt
ynaauk
cctoyingtyiqcjxjif
iuwmcrau
ltrbfpvibosjrxqmg
jgqghpcwmv
ylmhuoifvkktprnntdxmcyxnfrebnxjgueypbyrstj
jqavyvar
sbifjdinmyctquhmrplkfvmonagx
wr
jxoeadfqrnodnndeolhsqlqmoiterihgqfnbsdbjq
cgnqxzl
tsdflqrqatateokmk
mkztenaojoxwpyhjyazgatpqzyhzlepwpdbfaejpo
mcrhteviiausndtzmikxlp
rgjr
cuikafdnvzi
idgpoemmjuiensnyptxhydyauaywwtogehrvbypdupmrwgdzg
ctfwrowqwhqezmnyrghbfhlpmfz
pbnkongtfkxhxtlatmofdy
pzyjr
gnumnrapotrejcpjcjqnrkpjqrbyjtxq
bklhkydpwudnjnqlhfxju
p
lxdhqchjdfhfcipieqekr
yozlqcjlhcbhspsuhb
hvkeianfuaknofzflpwmxfihs
oiohgfjucgzrduqvhydkctpvqotqpchjjzkfitarkpua
dbprz
rqxtfxpxrpyqmjwjugeohjn
szfjwglhuyyyuuiwpfoxnhllerputcabznnqsgbvm
zfalknqtesmjzceqyerhgkdoir
zqtl
clcxotutpnfgodwkoeyhoqubciwcnwde
jmhvorkestjbnrvdrqbrzzfdclncxhmropbloaysbkheejentb
ngximdq
rrtqbolicdvajdvlbklfoiyokrnytxtybfd
hcujhqbqqpkdhwldgwerayzviljvestbfjaetr
pzatrg
rcsbvbfllytzlprxnllcqbjcgrmofinbyybnn
uatsqlkarppdrwogbovlti
mj
hzgjomltwciqnsmykih
snvcabi
dmjkspcuihnetoyxhjssuaknqdthrodxw
kpeonqkxfavqlfatmpylvrxmcgxzdngqhtgpzaokupgfc
rebtxkzmvfftupzbemqsnipvkdikvdpklogqbubjbk
gpgdkssjbppuazulfvlahlg
ypzqnbbludckxkhquiitunncychkfujbrz
jhdehucxjlksjrtqllrookcucyon
lslwxzpxtqtwxmquzcrdbbcmkzelapadtfhddopgvwy
lworjzxzqoeqayb
anqnjeaueospkzmewclcnkpljbjhorx
pxqospo
cqrftrhzkddhntesvujgwmgyrxvvwmyehq
bafoftfjzalcajkumzdbnkgjkdxa
ioywqvbowcgfacmbxnodgfjthpbgouoyq
vczbxndbcty
ourpvyifrupkrbefsqq
atdggmcdaaju
q
gebnohkinrzftwsjeerdjdmiw
mqlmdeegtictgldetvqyefkbtoelaafrzopotzlglltulcw
urjiystybpfkcadpvxtzkcovxeqkpurqvsu
ohegcwuuiqoxgalwpaxptjkjxnhojopornutcuxmg
ite
emxiunmviulphgxaymv
eoieptu
ndrnkjvshpsgkooghetwyakjuutivtovctr
axnxqzitfsjddavngrywwywyiyfptljjtam
ofalfviislswstztkiqqvbhrwebsrvlhqwrawwz
nxongmlysuxvsxvrcdbtmmwwkjnaunsjzbpojluudjtvdlc
jzrnevmyjmanggctuwgpidnsybqgmgutuzzibmshoojhcpgk
uinlkrnwdawqyvsajfmkverjggnrvhxh
utfyvqoozgimvhzvlzzvzjvy
aypexxveznuphdyvdyogwmb
ifegbeyaxlfvajrkugfqicdhtgdxplyobfldkhh
kwwbyfzfwobkrkfvjpaaiffw
gsjsqjbwcklig
bzszodxvnsuubzbwr
zujykpnlwhsywyzbgqnbhzjgtvtokvnhntotnmensgsgi
yfjlvozwynasukhnawys
lqejmkuc
ppibxfznwdckwuixlycpokepsuwomukyqhwdjnekgteemdfit
wsermmainzridqzcurxomfbvidroqlqvr
gfqnbytesosmzvhciuthghchem
fyczdkzfgxhsrawkdffwzzmxrvuaaitia
scnj
lqzupbecudjbqsngxhnupgdcnsiukgznfyggfkqrerpzghtg
dqfaeulfibxoouxoqtwpekraaqgpnjdsjtnzk
svcxeqwgxmbd
kzlpltzmoutgcmjhtifmdefmhvffmvzarzetrfxfriiwovzhkf
snlwjbxorjsgiqttdnykeexwxypzwgj
vmthrcgv
rawhqymbtlvzqrrwgzvypevqtcftvptq
tyrqvxxdyrzozzmohqfhpmjntaebkhrajbafupgqeymdolvdx
kifllpxpritigmlpryumaelpijhlcdvxkbnllj
vmuzwhhqfensftrnpuqkdnrzdypioxlvhltqgm
wghoiswwrkvupmjukuptxjszffdt
gygdaxnfjuxqheglmtmroqacduazm
nwspau
avlgryiexuoqnxgdjxlkkqtqtalefi
th
shmulpctox
tzjnbiqfnelmhdfgijousxtmgxpnhymniizofz
ojldqddlqscapljlrftdoq
ovhzfeeifcnbdggsjlijewryfuyjaplyzajhsnljpkqd
kzhrmgtrshwrwcelrna
fwmnjswrvgvsqjbmtnvhycseovqzkdpm
jcvmeuetnxwfuaxonsllfaap
atgyqxd
wxzwuxkn
jfctwcxjgnlwcz
ta
fqdysnpdylhcwwlsvrizpzozvklibzrqqk
ewitsfwbkpw
qedkzdpmijifyeornmdmydtldrijekjxmoldjhmpwner
ihuifrjqfqnocuwlimesbzvn
cvfxxtzgluxdwinosivm
qbjixgcucgzuimqesjjzwrsjhrbuhbjzhvkcpkjqojpbqguxr
ecxstrkkivdpwlqyupcqu
ihlgryrnpvpymvprvsbrjhgtipxrn
eloqdlqfljdxgcqgoekdpnrpuvqhscmlecwrwbe
gpalhfixvqehvsudtbtdrdwqplohhn
rnrnlswsrnennzdyripkvofhvb
cqbikmtspyievarsloitomijeaqdmemvypphuiedvirxo
yjwbdevcywmpegd
sxvsqxtm
ekhfcglxsrymfewdbtqbqgcreaihbrorbzlkbyljzf
ctpftocwqngmqvribrrlpdtxpmdpqvk
mmlimu
xtscxlhedgamsmseagfzdyxc
v
vwoveecawakowekspmzyjgnyitljhwvkwax
xhcvsmzccwwdwgestfqktjzuzoslaobcxuldqhahg
mqk
syjsocxsbutmbgbnyflnunljuzjcffarsujaehytuj
ks
nawyostgubxjfbwjqnrspqqortyrkefaz
fcpmerzqpepoutkhlmulvaspzadailpyuoj
zfrqhmidltazaeswhiwobkple
s
mdxepvxthldlvmlhbhtffipbgknqwfonnwxnegnfmtgcx
ywywlwfgdcwodngbu
gieqjpksdmjvhcayocwjaihuhcvpysbizzbt
lxekbguppxffgv
p
wnnygwljomnqbeqaoewhxnxzhiewmkgdy
cuexcxbbiflv
civdfgpdqzytkifverufundocvczzrzrm
cbdhlcgtnxfnnrhjzichnvbopjexk
icesievnzavqkgduxfhcrkgjwka
nljdjffwvrrgtxeovbnbmpkxmgzdqxjafnpjuoeubxgkd
wgqmki
vopgkfdgezjounwzszloumugdzbmgoevsvzpawfhrnuzliytjk
avqcsqrcjxiycbxfkboquxbqbkzwhawrccmuiuekmpjwdx
uvjtptzhzmbmrjowhha
xqtphseqpobarvrmgcfvphniedetcfzpuzqqqcsihdt
axcugmzqkcmexuomqazpcrrkabacuzzzxkacojlhhtqpku
qcakznjlaqcpvbadytn
hjmfkkpiofuuiaqsuitgienahwbpgb
ojozzuxqozsmewkmvtdxvtvxtlillwwjyulen
pydbgghqndlnzexhattokrphtgunjdbzeszuajvkiaakevyz
wdmrskncipedqasyuc
ibkmjowywazamriacrvgicmoeplduumecsiv
knklwhk
eorz
iwyr
gfeerrtmwwhpphupaqymeuhus
qgnmdrrmzfdpkq
rcrsqrklzvgaeffkfknqifrmklgkomaajycbsgpnqgitlhb
jjwvjiwnkzmemgmahndizxh
oggsxpkxouueqwadlkqohefkuydusxjbky
ltuzopvjhdnbjyokqrlfubwcorjojfmxjbyhtyrlqlsugapdyz
ztkrtdsgilbuunokkgfugjaxkhwybk
vfsyiicvbwzfaplvtle
upozzokffktacypaueenylphvdvgtdkc
nbohi
lxeholhu
blw
smwgwbddvscoiwkiiufwbmlwobrix
n
rkozdgxp
dtuvouvpfeyozzoqheqxhfifvw
jjgajwgrrugkjzkvdfs
yjqwctmewxajgctfxaamvnwi
cjicqparhumjmuloizjrpomallicqdukkpfmnynyjhubm
ufnavbzjutctlctksmtnrpzxigegesrdgsfzhfnexhv
jbb
aastoispcxdzmfomkvaigopmphok
hnhtdlzykpnfrdwlvbptnnbvpdblmyyppkghxjsxsrzlhujro
vncthlcosouodajknbfgynsooqkpyrtcwxwhmszmgjxppcqh
viruhsgbyv
y
lrritzfwmfagdujbyxefmrpaxjaejbpcoerzxcnonstedj
iftcydb
h
qcfuweb
ogjqggybzvagphoqdxgs
igqroqkrw
yqtbbjhtexifvqtdzdbddhhmafmahz
syxcxydgkgwxobpooososqmrwrqxywmuhqye
kxgaodhshdsovyrygukygcvewotdqtpclihz
itjxrqwldlejp
hwrlkrpjaxxjbrgc
beysizxiktaxfdqenkuciuazeg
milzgyqpedctphuczdkcrczhjdhkwilggod
uvthucopzusveohlxtasedkvngjjghacb
totjuc
vhxauzfjgotgompgxmfjvlyvjnzrefprjtiiznflhysfay
ksahvatcetjrnvqsdqimdzrqgwzjqb
fx
yqtluliphmnqinhjhjaqworqggsluceidmgfblkmfcfxfgftjj
hjpbvawzvlyqpifypdlmtyhlutgdstsponlajlulbhjztyvv
zqeesbrdojfsotgvrgbwnwhlzdhkslhlnr
rjq
zsgownfovzuejioyxmvbsrokyetnksjqdsmwsqfrdxtslulh
edeppbgxfvhfkfpo
fvtvutvogixeawe
feaopzacubyzteurzpuz
scqzgtyulisoueggshoxewtexfikedyceejkymdxglcqonb
hqrgtjwjwrtiforqmnzgxpach
ypdpzzclehhzvfotskrdk
nzoupbyhxujvljismmpdfagikefpqo
ebpkubscnpisaxtyiuslijnurijeowe
zxvthtrafhyuloxhahlgpdxnswfidjxdkyycnalhutdonxucq
fv
kxaynqmmzzw
zgkbredbauolwiuojejck
tbjmwmiaviiimafnmecrkn
vqliiwwypzsmfczzraxwzsgll
lzezmbiypsepbjcsaebiersrkdqnfrih
yrufwrfkvumtfbzvchgprcjbjnifocusnsdvxineg
lohvujw
hqykxzouyrwblynqasblomsuumqydyortzdijkkfu
ocjmqtatcaohcvqnstqgaltyjxuiomrsvjrbxlzobetxs
jngwgifgfspzujrcfonk
sbzjxmfcxjhmtvvgmnoncvcdatbvlhcad
namvmaocwulfjaauhzqarwkblxhwhfbbqqtplhsqfbqkzcssw
sqwvelesjpnflnrxriwvvxjixqgdcblhjgwbrqfdbpvupqovo
ihmhbvhbxlwpnfvwrkctcoibjignwgkkakawkryevhhnbjf
iclbwozqkgrxbmaxphdmhierautgotfdwmvtobrgdk
knncbcpxqkddssxawquwqhqsuieflbvpzperu
bcallafbxxxkdpefxbgihb
giwasukraluwcxudzykisaorsf
axguhljlrgswzawouzvpbzildptgqsuf
hedqbrgoyhxqezohdkbknmvxvdyhlqnvbjjyyxzj
fdbwdbo
mkctdhbsmfrppigyirnnymakzndes
vlrxwbwnfbcsdjzmidpqzhnlswtfwddurmhffnoqumrkb
zbpkkilznzfpaglkzmcoqovyomeopzigouhrle
vqlj
zknohwzegydpznvwjbkxolcfbsylqmmuvqzagphdeuhgmuf
durdmjexvcdrjvedcfifcccduntmznqxxgxv
xspbpir
jjrfneotovnjkmpuiekukndbbsrofyvojbptkprpgqblhaf
bsajeukiokzuoxhepncxtyegpajyfbslgxkscwwobvpfe
qshwgfvrduuzgzehuywtbegqdwhaa
tlvownurypzgnlkxipnqxd
scbfweoxyhhepqfcxqjvfokrr
jtoziyrlatyao
nihm
wjntjovmfnmmviqtnqhnjgkomfwvdafnzgeaqhrki
jl
pluqzujwouneshipxntbrqyq
vprtucsxkkuokkqaldinnxtboyfzqpxlkokqqxcwbqrwsr
tuawaedyvkoirmyuvfhzqcxtnxvwggupxsetudhdevjqubmlff
pqnqtnsfvqkoriehvesowheypdphgoimrgk
ehtamtscmheviwoxfhtxjudbtevhpmcvjqsnjdxkgm
zolccnhlsbosnkjhdqxgak
c
txiqxjwmciwudvqmqfpreppqa
xyzjoffwdytrskmzmuysfygdkpnggecwykm
hlrxicgykcdyuthqdnprvpehhlpyrxsdwilcdll
nuo
buiwmznsxctsdcobahtclvjywotsuulkjzgwjf
pnlkfpxmdegm
ngwdvtmvawdjrvgahnpsvzdguxervgn
x
kacrfwittertpgwoyvftnfimzz
zenyfowxnuzqgpazdfzaeaqa
rgofqliawcybnrclci
nikpispvbdvvwwxrcj
fdvymjdazwekrpwn
uueoxqlldobpwzdmfotlengqidcjbbrvtlldfxzpddhoz
boksnzmxpmjserzhlgrjdilwyfhh
zyaiowdqakrxbhipjurxlzygemznplyrbuqcqxofpwbdv
dgxgkzyrkmcoomchecvob
ivpjx
mrxpppgsegqhvemdyrfmdkywhveolakwujt
spfhsotessjodxetaf
lsenhkcjdrbcqvf
nznpptgsgxpyddirkflfzvpzqixupprges
sfhnvvwdvuxbamki
vxmkdyzcsdbumittzjjjhlvfuu
ldulzkooehyzqgethnkl
crwhzvwazmwodgseickeatzuagmuxekkzmvksyclor
zxgmuwszgtwclfsjuucu
qxnwmc
zblnasklogmhhhpxcofaydbyekdmtxmxxljxphjpo
xjtyzqxrqson
hedxdnjrlsqwpqqcqaitzxsflepxogb
tkojijhkltpuyzkpofighhsilwvfoahmk
ommqnmwlrhupbe
gkinhrwhuexis
zvdyirjrxu
iltwsgtodhlpjvwffzxblvasiiqopsjhxi
gyclvojeajbvroqjditdmsymoziexsnknopbbfwjhtejtebz
hcxeetoacoyuzcxgrpnepxdnf
uezccjxhkopbzdgqygkiobgpqw
wpaml
w
aofuexspguzechagvdl
ilhrbmgtcbhwxzrvjos
ztifnoagyggqjdxmojzbubbhnicubfybtojubjklyojpqmywcs
ezj
pndjufbezbtvzlghlrbjvwp
csiaaeapkzzowcobthzzjazhcbvga
kmtqttpynbyaltocsdbydjaikuyuxphsajzcauvkvet
czuy
petjbiiyfadszqt
gamjakukuonvopmfjmdkfniy
xrwziqxcoljhgbtaivyh
ifbvfztpxnxkxibhmmkofpkrqofizhnkny
ahrnnzqrjwlbdddynt
mseaosutbsrlllunjeuittxnhqcrpetnrhlw
fbahpdqnfrcieppnaobjipnbmjpghetjbuhvezautpgyao
yiohmyyeyqciipdldqfjytacurztjtolncvlxv
qptpgqqaxkjybpwzqmrcbuuxjhuih
ktfpiyxhzylnirnqnmzup
gfzumltbwfwfns
wvnjxjsunmtqicecximvrtylogl
nxupmq
mepphzbrkedabhyswgiljtdsnvf
ccyvqtinaowlntgah
egrlzbjrcucyyxhobjgnatitoghaeejmhybwjyqgjkglbb
ggsmdckznbzsjbystvfpzvxhpmqcpncauqbddwtjaj
spqoifdpirzjmufujzdvrei
liml
kyaktmct
rwz
lnamuesmunhrlybzuzpmebjedjrjxxdxxexfeb
pchrckmitasvfzfljvfedqjlhhpkedkgrfuqgziqzcbyosnvq
sddbqvcgczeixqdjrsthniiqunuvwubqdpacdvolfpl
speyzqy
duvbgcimeyhg
b
uymr
unanomlq
otywyjphdfkr
ydumzxclpxosehtzcjcoeuctevabxiqxv
xvemajpndy
xdugviwyetmsdgeurkuoyazn
la
kqjtrzjrcofxdumqtvzxplyrwcfqcjcovi
viqqvggyczdkjcexzdqnfhytl
ppswkhzkkvxzwrydzfngrwzrtwyh
iailnoxohtuu
ugedecstjihjcnjbxrwvsalprwtpivpjfdgpiybf
mioovlhntjcnya
sfentonmflmhxlyrttvzabjacdkobrmvgi
krjfnxrcqabbtjmgixqm
putodqrurgcprdvcielxb
ytjsogwsxpdagakskdnjajgipsmebjiqncksspycdwzxam
qpkkorjhntcwhqznuwmkvlokzzcxdtvtcf
guinzlkridfcwfhmwwv
xzfuuzgsozlhaf
xarvhzrypzaryyyifrmflrif
munmsswlvklbotluvxscbhufynolhamdqhzbdg
gmmmuiouprhkomwyhcni
urrpikmlxuvkwddldztholadwsyjatiynvjsfcmh
rnwyihsmcfyklysvghzbjaaxeyngjycvoldtxifforb
kxrlxhtvsdtbsmqhdlcbqdzviwicusuykphgrhcarogzkxon
bfeisvxuspegobgdopavuqlulxpcnxygirhkbi
mgughsuwbdltskxcy
dhwexczwkmfpumpufhlxjyvqfmg
ydfvqzzrzxgjieohoj
cfmrgauwtehlkygm
hrfvpgrwmlatnvuthyhvkrmjmddzhamskfqghxauddqg
cgbnkxpodxjcalxvxwtfkltrqgrk
jdixmdkumvmjubqtxjftmfbrtlmdhknb
etilfwhmqpagqlnjvkaxgmnbfxtxq
etuaibpgastwcgvojgsjyula
nltjbrxjzkobyoymwoctouihav
umcdtfsnxhteqiayljfyzwtpoxcjphgnjhp
pfkdfoqvbrq
mfhbmhrttfvxecpragdvnyqfzdcadvkhmdajrgvfnivdjaxsgd
hjpvsdbeiwwnxpquartqfmrebf
nec
pvrsfkipzevhk
iwwbrgr
flkwlbazpkjuavlgdaidxgpjlsdzxzfathc
krgbolbwxfqbxvquwfywjkznx
ktryyzvicizpszdyholxiinfeietmcgilucblkzmelrrqhtyl
paakol
tz
npqumpiwuct
o
mbstgnzkfjidneryngjytvgqcluckyoxbewzzogeupetul
dfxbldh
qpqwplszuxbdaeqxhhgujqsovmmmwmlql
ehtvnezfxo
bvbmodafdpn
yetyynecrrxqiuqgkhu
mcavuatgjtsyhrrymdwmwanxcmpxpwcmmbif
sapspxwwnf
hodkvjwknpbcrriwujfrerxpyvymjnpvebln
mmcbzxokr
cowyciacirayqdwgboi
gepqdpxkpeusmpndzrcflxbrnsxiekjqavlxnulkljkfj
ejjutgfndhojupybzbumvtyjkzxo
tvfhqcybvzossbydrtnazggynlqijvljkjltexqipmo
gahdxeqyyaffyfzglfqxgahdredqwtrdljyiztaqenodltfeve
rxjsthejcabauytawqkccythsxidwmzrwgvjnxul
mrqchrnttxmkttolhygooaqlqpcaltbiiyvliagnj
emqxspoiwcteihskbfcjkwcongdsjwccesfe
cxgrkhdgnu
ndliuhaoxxmzdbchmppgrwriondmdutxahoruxh
ihavsmnmkmxplezuqkqkgdhfdygofy
eqjmyeuxsjcqcgeiaigcaddchualvjjuswo
rj
jnibgeomycbzus
cxawydtl
qgefcgu
deebzggiqvgvizybowutboify
lnwvujrixlhxkdf
ogfdkkqycqeyzmovfcukchejiiesufafkcgxpyuqnnn
tljlzzhahizcdxvwnfs
urxnoxuscbxzcpdwmkpjquchdoksaqxacexgmnjreosfgjffmt
bkdr
lsnmpymrygjmogvthtdjzaeayxaasegtgrxqrwwwvyqhgcba
wrprzrnqvxxwzknt
sidlldyojdkccmdikngeqwqnfxuwxoi
ywqxqcqgc
jkxruorrqhe
jti
hqhyijujzliltqcnatmgbyzrhnryciomwmxcircu
qptxmvslomelnpchbx
zufhfkpy
eqiucncgbuyansqyenazkugetdkzedwrcdzlimlarqtnfil
yfddjjgftynqggyckvwyfstsgaerajerdtduthqrugpso
tkfwwofzsn
a
qjbclwcgzfjco
ygarxqrgxfcggmnsbkueqdbbswbvviadwlwjlqde
rbtnewbtxlgylqvrbhzdwnv
bxwetwuxvmxtphfvwjhwe
drvectcmnjogguijzcunjcwqyasysecr
ciykvyojursywohqtvcmwpugvomfywklhqhvlozznaipu
nodninzfxlbhwhvetslflmblkr
svmxdgewcqlcccjhx
mizcumlwopwsur
rldbkydslkynijhbjikycrwtppkkemfkcame
ihmupqgkatdrvnekiizhdhxjkvddvisgpojmxgeb
zliemgigvjepeohnabsm
fy
jhkiwdmqmdq
fhosaulf
kdbeceooztrpsektsvqqropwaxvm
ovoybwknovglndnbtzwphyyebqw
mcsjvpaitgobnuazdxbajebzwvdmpyszyooxzsfrnvoqoi
cbfoiciyyvfkhyqnwoskkloizvlvzhiqaxvttczhsazrykjcs
zrjucwuwtporjthiv
tdvrnfainftclkonummmmfvjfzwsgiegrn
klebjbbtvwzxlpoxmnmbwlhrbvrlestvbgbggyrxcyrbwy
uqrdxmfnnzihkfefpp
fknyjculyyfebsaqqqxrxhyfljioesxngzmalo
wmaqcutdvctwurlacrghiwuurcebtfxkipkun
sfvpkguwjlckduwxqqjksrshrftgqgzxynxubxssuuc
obuuptniemvttvvabnkqqojxqaujequgfieczfymwruftrspk
jhxvnputlcxpqoelemamqnpfymtebgpb
umxxomkedidgepjzztjmsennwocuemehelkoazizojomzlywvt
jmrwpmxtaeqzgedeeablkdldmtefzkitkabslxcwlhsxwt
bbmpdcvcjfdqvzxvgzdfab
zdruqwxahnrljda
xbwpxtwblanddhhbsnhroekcjsxydqqjtkvvsghliguaxjesvk
olyfdryelnamegh
ixdsrmgbatilzqdluebgbejjsvslomcsgqx
mrakplczkxi
kvsqcvzjgqqzjaazhnt
al
be
zgojekrstbjgsdqmsxhr
nikdmbiym
itf
hemwbzzlrvk
genuwvkrazpedznljsqqcolfeauhw
tbzrgyobguexnfrvxhneorgfjndpv
wowqmshethw
tywwxbucnmzvyvwkhdcmtlfgic
yquttvmgofsjlrsflh
cihgdsxnxvzqidcupiocqcwnuhapgukryarugowlikyfjhtui
xpjeumdivejazlvksfootowaoocipubrtww
dhgjz
rpnapjeqcgsdzoiszdpzkhjhbuvmmcnkqyemrhzgxv
bcmrklhlzygfsaczmmxstvgzswdsd
jaadunymekhprjpgegzxlphhohjct
hplllbwxbwkewovmvpdopmcdifdahecwvwt
xsgwafiwnzlcyakfvhfifog
dotkqvuxnzsotulbovnskjlbsfxohrgxwxkjbmhivzsbe
nqssfeankkmskyjlelutorkcxjqqzuovwvjjwl
vkgytjisybznhjxjgvwmr
xwogmnzhgchhwefmhvsubnyjikhbxaphhcyixsbwospwegjiao
cepvxdnvsaeltrjauuoznacmhwelqhqwhmpcovoajpbkponoj
svuuanpcjauulbgje
wtppojvjnjgzturypgaekldvlmprxeepcnuqnbbdbxczmm
wyvhfacakzgoahgebnceecyysglwwwhterwraxy
qrnumcihltkoeycknh
dclnnuzlrfzsccxdrowywmnkoguqrfgwhbfmnfmrpnv
uqmybpqrmuatmxptjwvxmmvnhavwo
iktfipy
uvdrsbdhkvseizaxpdvamgolsjwjgrcmldhngsimc
kvijineepgeoxbevxsrgqbykqhyvlbvzwbbetbsluapg
v
lktzfoawwmtrzjnihmetgraydortaabug
anqlyscrmxrqnqygjahfovocenludtbyke
zvnqsnwowlkbgtrhdaxy
vbzbmikerxjvbgatthpjcruoi
zhwcxiiooimzntjhnunnaygcf
utyhxfpbfpiwrpdjm
yxsnuttziyxvwetltxmntoya
rlxzru
rgowdcsxhjvonqtlycefpmslnreizzdnhvpwede
gpwnmdsgn
efossnoxkccyngmjwoae
lrtopjfqx
bnsxjroslcviarnvccxokhjmevobkfu
fakoigzdzdrbjlvvtakhianknz
celxxqvgnu
gbxjsrikvmhasiyttrdfyaaffgzfwrqosekzypmhro
mytxcirzcdqwodggyiqrxefscnoqsatghujyzbihkxtj
amzjpiakoalepylgzqvkgflwdaifptnbdkmurwztleov
xwxmuvguksbkzj
karpzflwwavcrebbripqsgfty
vwceijvrlcfqjfelfaattcemxhmqzwwkvstlorcvwjgjr
kwnpdsqegywcosrkcknjcshkgtugwviqjvpelxhoqsscrszd
luwhsrkwqcrquwylqpiokdjdnzuqpmdlbuf
wxpmowrjjsebmlyhdoh
phkfxmfojvorcx
bhacjhrmnyvkpuqgw
lfbnmzluhkkgzpmp
pyxtelmbpicnrxhmtcgqntriuzeldtnrkekvbrmw
utoycuoybhmlewdhuqmnygc
zigfnudeudejgvaooexavrmrkpftiodrsevvuduluhtxhgqpfx
cexqhnqsfbulfjlelov
mu
xfjvdmpgpgmojtrbziyxifnrwwozmldae
qqnpomnlumamvoqmrkxhqydwcjdeaumrjaqgp
cghhynctgdpvlgmeaxgv
sgd
juvfuuumqrynqnohqwqqclsym
mrhpiubr
voexn
uvdzuvlgawdkdvrrvzznemklbadkfmqnkzognqxjxutqbyvvaq
mobwgsiusyfjuqnwtpvvmlgrhrshdwzyjigneo
ijhnaiytsftgagdeef
uge
hwzlpcxggr
lfdavaczmpydfwbcyfjvrawivbglpjbqooxylvsytwknwscg
vzhjmdpbvaruyjcdkochlayuezdmtkmjq
wenpadhrxiotfiabya
aeenkxcuulrrocyqcjqqaxsvnkde
fbzejiwjvcgoxiozwcazemgdobxtvckqexaen
piughcrxcgutfkrwpjqxavnlvrpfcoxquoppmipjsoflzy
zkdsxrjicqppdyrkgijfwruwtv
dv
xxezbzhdxbipokqywckpcnsewfgcg
kem
wvvezvdrtltejsrmees
qvgfwkqzcnpcktxusypjvuropiiocsetkhjlokzfopih
erzrtkytdqkfpvawnxnjetnp
ybuqtuvhhc
qppwdhjfdjjzptfutliolyzppyjrixfuqmrnrwfrdhdjen
vadjcw
knwzdaqeimtyqcnycvukendlkbzeqdfitczcaa
rspopuvhbgymydagivnvhyeikjmvwmugdlaowtknzfhkqmxgsf
dhgzeggqyccburujrpkdfwpbckstghaqsu
gzbdikllxwualeajdfihtbky
vcfnnehvpllqytfckifthrehbbrjszlysiultvgwcmxprmsxr
b
wkeksasnzewqtufkxaqbnaytvkqankoosjk
flyjjhqcvydwtebbjienqsbwlryvhnfshshlrob
gjloeyamcxhkkxfsihmfuxxmqdaevtoncfwdthpzawzwqf
mmlepnosmofwpmukudolhmwgwszkwnbmnanychhaiqmhfjrkk
fsoprgylu
gdbyvypdxvzhxcuvq
werm
rcnnilfuyuviqvtypuggapfhzmmiy
yplbzmwnsuwyeeprocpmxxapbrahovwiaqnjfmviwncpx
pvopdaimbiuwrmxahfsdbqcmodvfgvtr
rpjagtmjgnsrwozulbiikwyfdydkv
lfhqvzfbvyxjqpdqlkbbp
rinlqopadfwpotflqnonxhstkqxe
dopxc
uhaqineufwpmyvzayxgqrsskqt
nuenskjwiorid
gteonpiyykdllchchjxkmsb
aehwehtctxtvpcdfzylpzjgemcylwqkqqotui
qqcmryswertkzqcnegecvwpgi
yjllvycnckezisii
moeujxpocjwsmvnkfqktecucstg
etecjjamiwvstnhydsbmivfy
idzmxnqlnmhqtnvqjwiogeeiodzddursrfwfdwzwmbtvmqpi
msnjvwnxefbrmjsyuzqggueuqqtuexfavrwctfmrx
pbvpbumsljqrekyqonbwmvz
emdfagtsirenzzzyamwxyfefhviudspgikaafmb
wztqpkjmyhglwdjercdmkqwzbnygevevz
zhsmwyjuezurcxpbwfqcmwctmzshmikvjtvvnn
wzkrmmnrbycmeer
ow
ckbseeorkkxmeljwpszbyafbymhwezzewzksvubdfyqi
xadhogsyjwkputnkkv
tjsebnqefqfkufvzfxetieifqph
mlppwfelelphagvvimghkuklusuviwdhnogelaswmnumatwr
tyswtvzmlbhhvsgnrcniaeidnspcclbzoukuxf
pvxklvxaecpqduiwrigkyiuosuojfrezka
zvcviizzhikvhbigqmkeacvzgkaofqdzathlyijeetigi
atdpfdywczthm
aqhlpasstbnlgdfmbzmzhwnropclyjrlezkmllnuaqhdxsks
fckjkl
sn
pkgwdjozbsytcecltmcoqtbgdnszjlsqbbxijxxpoo
azbpp
sgtodsmrpyjfwmudgddxppfocynblggyhvl
sppcswrynwvfiodyumicxsukyyvud
mtormefhucmdfl
hhuxhdeintakk
cunxegnskoiipzcxnfd
mwofpykvyyjrdmpybmdjkobbguwodoqqkthasdpqqqak
rja
bazxwllmsfonmyfuwgisbqvzlnlwprchwmgxtccdzli
wpsntuxcwbwojymcxzaueiawfku
cwzwxecoryucqgxwqduupsa
tjeebnzxpdxstdtoucp
cdalmblmcdcobckaxqylqugvpblqvnhlkqtadpubuaddlovlbv
rrtozfilcgehiimzq
l
rfgagvlztqwrxbefzkeizkkeqlygjcdmeofe
lyojeekudcdg
psszmrfcycjm
kjdf
tlkirjetfxsirqiwjw
oagq
lymohzzsbfpkfnalxrvr
gwjijzstuektdbhibvcbnhmuqpjxnelhzgqoxn
walknqntkpdeioousgay
z
ezajjgrgvjuvpqwqsytbdzcyjfkudfs
ssodvlfdbxhkebkdgszvhhgoxohtpyzaeqxchkzoqmqskowv
rwmtdfbsspfqnebpzbfonuocqmqkcabngrrbseyj
gfikrcpcmqcfmmymc
lzknydoscpqdqnnj
llwedhthogdvrrontumruuopxqw
yqecctiqsjiiuykilrtcpbujnjygnkhnoybhlx
gqqdubdbiqozwogijsqevodcouqasjnvkgilpytgau
qxgegvykpbvhsrybjfhnyutwcptmtnekbipugnsobyobyzib
iffe
bhdybetuaguebrwkxbngxvsffiohhxoalwbw
oyvugsx
emaumwnduiryq
kzwawdspechdcxxxfnlqxgzpeclsyuylmgzrpy
xggcnwzaidablspacvnzizgve
lniwgdosdgrcxcxfgaitcihwbabwupuracrxfjptzfvartlan
fsspvkupcmvdkubewodsckizoxq
rmsybgafjbhmzeuzlnvajdlezpwfvsrxpwkfviglng
exipta
gmsfllhh
fipyuu
xrsubpglculorcahklawljokmlszmzpvoep
vxpolkhivikhmaxwmxgqbswxrtvkszkpbxsmo
ctikayx
pbfocwc
xo
lrujqjkqkelqavonwxfsruuvepmjmawvkqbao
xrcmjtguznuavonkj
zwjcmhskplqzhsjuxssnbmypfzzzrxihnilewnxb
fukgdewmctepgqiobuchnjqtbegnksbzapfplwmafigtjfztt
hgjasxqxyzdgotjgsn
jnhsbjimrtrazrhfpifgxoivuhfyoracgeg
pphhzgjipborvafrilu
qzixmikizhnnegsarelebsucjfapdawvcjj
cjhicdeevlpvagkzfdavxbdh
lzgnrgzq
lyimllgcibsynotezttxiwhfnjszaysvcjpryli
osmywzcqqcfjentdajsqkcnqjieerekspwqmisgjvaqceoemg
okdeccxcrqkdhwovzatoseodgeqyqfyfylnljyubvrq
yraxewpsygiwkjxtljkrynkxxjjwihuwigvzjjjuxsryl
qcjrxoheitl
gntktixxxwmrfysptlrbgqdzsaxbboeltkktlqpgtsqwuxa
owxebxoyri
icqgqjnkxabumsbhqbycqakeiwrkgnpxivbql
jcvytcdo
nqbynizlzzslcknoibvwrgaqqczk
cocvkp
uthmufeeytmngdbxqykl
qdoxjdpoxrqhhjtptmplijdcz
qtqjsyljiwalhedlwbosipmwwxexbmvanptrrsjnk
xmjzkrqjuwbwlyyvbtorqjirvwrwpvfiogbfarfddnexhltpx
tvfmyzjebvsyeksxwlxmztyhrnoebvriucdsiy
fgth
pamdrxpmqeedztvgxmwadrnebqgafoczijjv
xnixudiudtgrocuxdvylpanhaegjvknakhhlzwarzgzichv
vqvoricedotzfwabvqpftqiweagqfzngkrsytsiljhxvnmj
wcnfpneoajhyh
ymjmupnqfixdhzu
mheqis
dplrsjzknarkhojegdwlcywyuvlsfhezjsmzjbcopsk
eojazvtapvq
lvbnl
nmccfvhogqggusoihmbvsosjyeatzzapiy
g
kgdjchcsgurzvxomhkbtibyewejykhwwpdxonhh
bzrwmlllpjvojf
vglrpmmgvciqdfnplsxgihcodhzlbxcft
oikaruhkdfgmcszvfapifdhmnwiryyi
jbcfawlnyxfi
xne
kdaif
thutt
kxoyudpaekiicj
wpdzvsc
iutumfuyjnpfdqxcpjrxo
xitenvmbpralcberfebjvpijpjnjutsuywuiuaebpfwnm
xgovsweesxdxfpspxtyzqhftxjohkhuzohwsdftukhhbpfn
xjqsfbamlyjxitjhbqfhzezwpiztkkdsxdwfcc
yfyl
ejsqyhbzaooimalkskuwbdwcqsvmcrbfnrcw
tujwyiexcfyuvoe
avsflaheu
bymvlksdfyzzkvfptyehiweywqmjxagxqxpfmsfdpmtin
jjsumrkyilnpfilmkbstbwiqwjnuvqm
ravtcmszocfemwfyqrmqrxh
itvuucdciezkgnsg
vahcqtjesebrasbmnpzzrtfbgqhhqavix
sznkijhtlnxifgyqwjggsxdexxuymurqznnqaiciih
qsyfqagxtjfvwhcnyavgbgntiyhpmiugr
umwmgjzvppewcauzxvkbxoonvjcphrjdikknkdccc
fgthqe
vyjmogsluojseuczax
lnualedvrjyie
cylqqxuoczly
tkciqvzevpkbamsoftsckzeizmuxdhyotkbszzsstvr
qsfwbsxscqkjlcoc
xzyrhogfdhpowfqy
jbnhfvtvclhabdvroudngvgzcivzocyrrbpxlelirwjkv
hmlrvekzjzbzmtlkrhtalifcolxsbtzyjkuaq
rsyvodpctsybtomdcjakeowbydutopdbpwzovibb
riamuhdonufgzeckilktdqgskvkxeifczfi
okwrprghhinxy
xqkywqrrjyahatnyjtat
aigrmvclfmfvwwwcmvjzycjqxenvpajubezie
aodvbxfhakatyxkpkuddxby
orvzgoew
taoytgpdsw
jlktjcfbjvruwcbcxwgunniskwbltcnqnktgrvqcwziyqq
fzbefefksst
qkkrzoaaufkehcvnyrabtwxmbldrjkspuyzknaotna
gnknqqwvejctnwxfaymgpspnvvnbyfepzwxhgpccfzu
rpzaaqphapq
rgbdlcih
wjszcazfowaxqfdx
aucjlsgerladrdoocpqxnwosctlrdabducxux
u
zwturjtbznfmbnbxwebkbcdqstapkkhcuysbv
daizyiqr
qrdk
gsiacqbvndpribpflokciptjtl
wlzbxeszvke
alkxw
fhbqvxogzstcskftizugcdavhifyladneqr
pmubzbyskynovkjgmcxvrfea
zvihrjxyhjeitofykkvxrgqefmwbfzzjqew
uycdbjngxlffmyjmbosasweeduqfpezqfdmbgktwwzue
hjypxlaggqovoysfxtikptdsokdaixksuoaubo
yxddsmxfwxybaawjtqxzstlhbcymtzsenmku
axnuaczfe
hxuayfik
vsdnbfffaihjmoqnupwvlxyffawrmhcyvodwpyqlzwwgcye
psswkjbydygblttjctbsoqxwrcmzvoioauitodjontxuj
tmlk
wwarz
teheakljjwboszixrguxyytfcyuhqblygphyzsqm
vjgvimdvid
gyqpzhhpmhxvsqwtvcbqjzp
ynrvqpedvgckld
bcqhmtkugtltubliwrxveofxmqqmbgdrsjkbjcinfikdckg
ifi
bftiblrefsdxcmppnmgcisfxncvreyzmldoeqe
ynmfwhugrddagtjgnqokhqaphvlgwqqxzkduytbymxplwuex
ycdq
rohhuiis
aat
uqohjldmcrfn
yhedstthbnhqprhuzfqrneewpauesa
awffpvswwwafcqmpo
yatbyinaovwsewghhjzyzfkxvfkpnohoogzk
ddyisoitwtqnhrqelpgtynzhqbe
ykonulirmaqlgtxscf
mresyfqaoribbjuetpssxyj
hgfftvzcc
ovqhesirpkekrtmoqh
osxxns
elpttvfktoesh
rxabpnhwcllvuqhklkgcxfchikvacjeerjuve
gxmqzcfgezzhhculqlabenluepwtuyhbxbwmpgdhisnq
cxzlrmvotstuv
fakwtuhceqvgaxhxt
tutomkmz
mwojmjhbapyc
nktrfbaywh
ufhuknhquuwbfvioegjzhdabatpmmtnwztmwsch
iqfogmdxdvbbrnkgcqmkbidpsld
zipimnpivypucobojvcawzohxgyxhgepvllkwsiabv
qtpzasyhvmfcmyrutbtznvufohzwzrkdpes
dpiyrxcsxnfqbqwkdojlgrgnahbbbcesdghsfmjkvwmvfyqdai
wopeoifpbmblofoijlniwteyblkxsdrsmjrmugdrwt
seerqtawhfdtj
pjpqfdlmkewzfkcvtpjajnojlehlbpyjrh
hvknnwvmashkslvaktbhrpadbqtnfkjasyiccz
xcheshkxbjimalphbyrlaedtmdnbdhlurnkqodrwjtkrpmyt
rjimlonkchgrirfjbhgppfgyrmlficevabazfexgbpwn
feqcseosevlnkxtaycgliuhrjfnqofiwwkjkx
doxugxowmvyhmgcrptfaalrtplbqvlxcgmxbsiqzxtelsgsrij
thqdycdcnlboobjlnuzzrlpoywkzjamjfxcackpjy
licteoujlnzhkkaztisctwwcaljaeurngi
goecckwmuqmjreubf
bwbnsbgydvewzzevmdfgztsozzbcxei
izntbjlszetlwukdkjyfnwblukwfyauuuap
acedmfqdaiialmoikjibzjyrachiquwiqapsopvowgw
qrjacuupoykuwmkmckubsetoxzwwnargqgthtnuh
xcsnycsohoplvahhch
oaxxhqmfosyumwhplgqcgkqxkvalitgmaqaqvgbz
ratlrduwoidvhtjrzboiyakgskhgdqrawadhtrwwczmh
bohpteahnoqalavevenorpdpqjrglukgqkgztroiduaftb
eqtzadnquryarufdmoki
curijzantkembuckrnqxagtywoag
gknubqp
grymavgnpdmrdjrunqgrpqgrdngchqvbhiwcjockvt
yegdbzstmfipjdziwfdbxt
arscljhaebhzdrocosjemqmgkr
cae
ylbstrbvssdlhm
xeeueziarzrrupokjtupzvwtfxgt
qizluicewpvfxebupienbuw
hkmbkmpgjzpgxqgampzcdlwvenwnxzszlvfkhxfegnliyxv
edqkifnuowjgvuaaybqlsyisvptsodpqbtnbdqqriyjdc
vhwiztctakwonrikgmfzdklmjiyzfawdmznuw
xxbrhyeupyrxgswohjowhxcrltqomdpbjwdfkwadbydalidxcp
xloupoodsfgkemuzexxh
gkog
gikwolwifrogqanjedovuxsxdeeopszxpalusp
dbilixjuhrojevezkkq
hqb
dxweaqseiyyzxyp
ncvntdumxqlbzreg
ibbapgnmjsurqbjesinliidimytm